45
#5988
O         -0.99920        0.20850        2.06590
O          0.89830        0.28600        0.64250
O          0.72650        0.41840       -1.65880
O          2.09380        1.85600        2.54570
O         -0.82420        2.38160        4.34800
O          2.14020       -1.97350       -0.59420
O         -1.13550       -2.63080       -2.10620
O          2.10310       -1.52670       -3.46560
O         -0.06840       -2.32490        2.47340
O         -2.00080        3.62840        0.87520
O         -1.48710        1.72300       -3.03630
C          0.43190        0.07400        2.00630
C          0.87230        1.23880        2.94690
C         -0.30870        2.23080        3.02100
C         -1.38440        1.59070        2.11680
C          0.31650       -0.36810       -0.51650
C          0.72620       -1.85140       -0.73420
C          0.27490       -2.40190       -2.11380
C          0.68860       -1.45660       -3.27110
C          0.28710        0.02150       -2.98020
C          0.92370       -1.30840        2.55030
C         -1.57870        2.27580        0.73820
C         -1.20570        0.34650       -3.25990
H          1.05650        0.89900        3.97030
H         -0.01660        3.22790        2.68390
H         -2.36410        1.61160        2.60100
H         -0.77140       -0.30620       -0.44810
H          0.26610       -2.47860        0.02580
H          0.72030       -3.38870       -2.27050
H          0.24440       -1.80130       -4.20870
H          0.84720        0.65050       -3.67750
H          1.81640       -1.63360        2.01470
H          1.21180       -1.29320        3.60160
H         -2.33880        1.74220        0.16390
H         -0.65500        2.29000        0.16190
H         -1.45680        0.11510       -4.29710
H         -1.87290       -0.22810       -2.61990
H          2.77010        1.15040        2.62410
H         -0.08730        2.74030        4.88500
H          2.32500       -2.93100       -0.69230
H         -1.35060       -2.99270       -2.99140
H          2.29480       -2.46630       -3.67150
H          0.36850       -3.13020        2.82380
H         -2.05360        3.97080       -0.04240
H         -2.44440        1.81430       -3.23010
